                                   MODFLOW 6
                U.S. GEOLOGICAL SURVEY MODULAR HYDROLOGIC MODEL
                          GROUNDWATER FLOW MODEL (GWF)
                            VERSION 6.6.1 02/10/2025

   MODFLOW 6 compiled Feb 10 2025 17:37:25 with Intel(R) Fortran Intel(R) 64
   Compiler Classic for applications running on Intel(R) 64, Version 2021.7.0
                             Build 20220726_000000

This software has been approved for release by the U.S. Geological 
Survey (USGS). Although the software has been subjected to rigorous 
review, the USGS reserves the right to update the software as needed 
pursuant to further analysis and review. No warranty, expressed or 
implied, is made by the USGS or the U.S. Government as to the 
functionality of the software and related material nor shall the 
fact of release constitute any such warranty. Furthermore, the 
software is released on condition that neither the USGS nor the U.S. 
Government shall be held liable for any damages resulting from its 
authorized or unauthorized use. Also refer to the USGS Water 
Resources Software User Rights Notice for complete use, copyright, 
and distribution information.


As a work of the United States Government, this USGS product is 
in the public domain within the United States. You can copy, 
modify, distribute, and perform the work, even for commercial 
purposes, all without asking permission. Additionally, USGS 
waives copyright and related rights in the work worldwide 
through CC0 1.0 Universal Public Domain Dedication 
(https://creativecommons.org/publicdomain/zero/1.0/).

The following GNU Lesser General Public License (LGPL) libraries
are used in this USGS product:

    SPARSKIT version 2.0
      ilut, luson, and qsplit 
      (https://www-users.cse.umn.edu/~saad/software/SPARSKIT/)

    RCM - Reverse Cuthill McKee Ordering
      (https://people.math.sc.edu/Burkardt/f_src/rcm/rcm.html)

    BLAS - Basic Linear Algebra Subprograms Level 1
      (https://people.math.sc.edu/Burkardt/f_src/blas1_d/blas1_d.html)

    SPARSEKIT - Sparse Matrix Utility Package
      amux, dperm, dvperm, rperm, and cperm
      (https://people.sc.fsu.edu/~jburkardt/f77_src/sparsekit/sparsekit.html)

The following BSD-3 License libraries are used in this USGS product:

    Modern Fortran DAG Library
      Copyright (c) 2018, Jacob Williams
      All rights reserved.
      (https://github.com/jacobwilliams/daglib)

MODFLOW 6 compiler options: /Isrc\libmf6core.a.p /Isrc /I..\src
/Isrc\libmf6_external.a.p /MTd /nologo /warn:general /warn:truncated_source
/stand:f08 /Zi /traceback /O2 /fpe:0 /heap-arrays:0 /traceback /fpp
/Qdiag-disable:7416 /Qdiag-disable:7025 /Qdiag-disable:5268
/Qdiag-disable:10448 /Fdsrc\libmf6core.a.p\Utilities_compilerversion.F90.pdb
/module:src\libmf6core.a.p
/Fosrc/libmf6core.a.p/Utilities_compilerversion.F90.obj /c

System command used to initiate simulation:
C:\Users\luiggi\Documents\GitSites\mf6_tutorial\mf6\windows\mf6.exe

MODFLOW was compiled using uniform precision.

Real Variables
  KIND: 8
  TINY (smallest non-zero value):    2.225074-308
  HUGE (largest value):    1.797693+308
  PRECISION: 15
  SIZE IN BITS: 64

Integer Variables
  KIND: 4
  HUGE (largest value): 2147483647
  SIZE IN BITS: 32

Long Integer Variables
  KIND: 8
  HUGE (largest value): 9223372036854775807
  SIZE IN BITS: 64

Logical Variables
  KIND: 4
  SIZE IN BITS: 32
 
 NAMEFILE OPTIONS:
    FLOWS WILL BE SAVED TO BUDGET FILE SPECIFIED IN OUTPUT CONTROL
 END NAMEFILE OPTIONS:

 DIS -- STRUCTURED GRID DISCRETIZATION PACKAGE, VERSION 2 : 3/27/2014 - INPUT READ FROM MEMPATH: __INPUT__/FLOW/DIS                                


 NPF -- NODE PROPERTY FLOW PACKAGE, VERSION 1, 3/30/2015 INPUT READ FROM MEMPATH: __INPUT__/FLOW/NPF                                


 IC -- Initial Conditions Package, Version 8, 3/28/2015 input read from mempath: __INPUT__/FLOW/IC                                 


 Setting Discretization Options
 End Setting Discretization Options

 Setting Discretization Dimensions
    NLAY = 1
    NROW = 20
    NCOL = 30
 End Setting Discretization Dimensions

 Setting Discretization Griddata
    DELR set from input file
    DELC set from input file
    TOP set from input file
    BOTM set from input file
 End Setting Discretization Griddata

 Setting NPF Options
    Specific discharge will be calculated at cell centers and written to DATA-SPDIS in budget file when requested.
 End Setting NPF Options

 Setting NPF Griddata
    ICELLTYPE set from input file
    K set from input file
    K33 not provided.  Setting K33 = K.
    K22 not provided.  Setting K22 = K.
 End Setting NPF Griddata


 CHD   -- CHD PACKAGE, VERSION 8, 2/22/2014 INPUT READ FROM MEMPATH: __INPUT__/FLOW/CHD_0                              

 PROCESSING CHD BASE OPTIONS
 END OF CHD BASE OPTIONS

 PROCESSING CHD BASE DIMENSIONS
    MAXBOUND =      40
 END OF CHD BASE DIMENSIONS
    STRT set from input file
    BINARY GRID INFORMATION WILL BE WRITTEN TO:
      UNIT NUMBER: 1011
      FILE NAME: flow.dis.grb

 OPENED flow.dis.grb
 FILE TYPE:DATA(BINARY)   UNIT 1011   STATUS:REPLACE             
 FORMAT:UNFORMATTED            ACCESS:STREAM              
 ACTION:READWRITE           

      THE LAST TIME STEP WILL BE PRINTED
      THE LAST TIME STEP WILL BE PRINTED
 # File generated by Flopy version 3.9.3 on 07/28/2025 at 13:37:56.

 PROCESSING OC OPTIONS

    BUDGET INFORMATION WILL BE WRITTEN TO:
      UNIT NUMBER: 1012
      FILE NAME: flow.bud

 OPENED flow.bud
 FILE TYPE:DATA(BINARY)   UNIT 1012   STATUS:REPLACE             
 FORMAT:UNFORMATTED            ACCESS:STREAM              
 ACTION:READWRITE           

    HEAD INFORMATION WILL BE WRITTEN TO:
      UNIT NUMBER: 1013
      FILE NAME: flow.hds

 OPENED flow.hds
 FILE TYPE:DATA(BINARY)   UNIT 1013   STATUS:REPLACE             
 FORMAT:UNFORMATTED            ACCESS:STREAM              
 ACTION:READWRITE           

 END OF OC OPTIONS

start timestep kper="1" kstp="1" mode="normal"


 BEGIN READING OUTPUT CONTROL FOR STRESS PERIOD 1
      ALL TIME STEPS WILL BE SAVED
      ALL TIME STEPS WILL BE SAVED
      ALL TIME STEPS WILL BE PRINTED

 END READING OUTPUT CONTROL FOR STRESS PERIOD 1
 UBDSV1 SAVING     FLOW-JA-FACE ON UNIT   1012 AT TIME STEP      1, STRESS PERIOD      1
 UBDSV06 SAVING       DATA-SPDIS IN MODEL FLOW             PACKAGE NPF             CONNECTED TO MODEL FLOW             PACKAGE NPF              ON UNIT   1012 AT TIME STEP      1, STRESS PERIOD      1
 UBDSV06 SAVING              CHD IN MODEL FLOW             PACKAGE FLOW            CONNECTED TO MODEL FLOW             PACKAGE CHD_0            ON UNIT   1012 AT TIME STEP      1, STRESS PERIOD      1
1
  HEAD IN LAYER   1 AT END OF TIME STEP   1 IN STRESS PERIOD    1
  ---------------------------------------------------------------------------

            1           2           3           4           5           6           7           8           9          10
           11          12          13          14          15          16          17          18          19          20
           21          22          23          24          25          26          27          28          29          30
 ........................................................................................................................................................................................................................................................................................................................................................................
   1    10.00       9.819       9.754       9.598       9.415       9.331       9.045       8.749       8.602       8.419    
        8.293       8.187       8.098       7.913       7.720       7.549       7.352       7.273       6.996       6.637    
        6.461       6.280       6.064       5.956       5.853       5.708       5.498       5.261       5.109       5.000    
   2    10.00       9.851       9.717       9.568       9.421       9.301       9.049       8.809       8.637       8.459    
        8.314       8.184       8.079       7.912       7.719       7.583       7.371       7.177       6.990       6.730    
        6.520       6.300       6.077       5.976       5.836       5.675       5.488       5.267       5.083       5.000    
   3    10.00       9.838       9.703       9.590       9.472       9.264       9.030       8.871       8.700       8.495    
        8.316       8.208       8.094       7.896       7.675       7.542       7.350       7.169       6.957       6.718    
        6.523       6.307       6.147       5.980       5.783       5.610       5.445       5.322       5.137       5.000    
   4    10.00       9.823       9.716       9.601       9.494       9.278       9.039       8.934       8.709       8.500    
        8.357       8.220       8.110       7.899       7.673       7.531       7.338       7.168       6.942       6.699    
        6.560       6.324       6.112       5.949       5.721       5.581       5.410       5.238       5.112       5.000    
   5    10.00       9.847       9.712       9.603       9.481       9.314       9.145       8.958       8.704       8.560    
        8.391       8.233       8.101       7.896       7.688       7.571       7.337       7.105       6.922       6.688    
        6.500       6.318       6.159       5.932       5.658       5.569       5.376       5.200       5.103       5.000    
   6    10.00       9.856       9.701       9.594       9.478       9.335       9.171       9.050       8.803       8.637    
        8.478       8.277       8.100       7.901       7.701       7.526       7.304       7.080       6.863       6.636    
        6.371       6.185       6.092       5.984       5.744       5.507       5.315       5.203       5.094       5.000    
   7    10.00       9.878       9.723       9.582       9.472       9.336       9.199       9.110       8.912       8.687    
        8.546       8.326       8.119       7.909       7.700       7.492       7.267       7.031       6.778       6.476    
        6.227       6.164       6.062       5.967       5.757       5.469       5.291       5.198       5.100       5.000    
   8    10.00       9.873       9.701       9.587       9.474       9.332       9.194       9.097       9.023       8.818    
        8.599       8.364       8.139       7.918       7.697       7.474       7.242       6.999       6.740       6.464    
        6.234       6.117       6.021       5.932       5.665       5.394       5.294       5.187       5.093       5.000    
   9    10.00       9.896       9.707       9.578       9.459       9.318       9.185       9.100       9.037       8.865    
        8.615       8.390       8.157       7.926       7.697       7.466       7.228       6.981       6.721       6.447    
        6.234       6.095       5.994       5.925       5.652       5.378       5.296       5.186       5.090       5.000    
  10    10.00       9.942       9.781       9.604       9.424       9.334       9.182       9.070       9.007       8.924    
        8.708       8.425       8.173       7.933       7.699       7.464       7.225       6.976       6.716       6.443    
        6.251       6.097       5.954       5.843       5.634       5.393       5.286       5.195       5.110       5.000    
  11    10.00       9.910       9.790       9.720       9.513       9.327       9.157       9.057       8.975       8.874    
        8.701       8.429       8.175       7.934       7.700       7.467       7.230       6.983       6.723       6.446    
        6.207       6.050       5.941       5.825       5.596       5.373       5.275       5.191       5.121       5.000    
  12    10.00       9.902       9.813       9.694       9.485       9.336       9.179       9.033       8.931       8.835    
        8.678       8.415       8.165       7.929       7.701       7.475       7.244       7.002       6.749       6.501    
        6.223       6.008       5.950       5.771       5.556       5.413       5.279       5.203       5.146       5.000    
  13    10.00       9.891       9.781       9.668       9.490       9.321       9.152       8.981       8.899       8.824    
        8.656       8.386       8.141       7.915       7.701       7.488       7.268       7.031       6.771       6.484    
        6.252       6.043       5.909       5.753       5.565       5.436       5.326       5.227       5.112       5.000    
  14    10.00       9.853       9.755       9.634       9.491       9.304       9.132       9.004       8.878       8.773    
        8.607       8.333       8.097       7.890       7.699       7.509       7.309       7.084       6.820       6.501    
        6.268       6.076       5.933       5.768       5.555       5.433       5.319       5.241       5.125       5.000    
  15    10.00       9.854       9.735       9.617       9.447       9.260       9.096       8.973       8.831       8.720    
        8.536       8.243       8.025       7.850       7.695       7.540       7.374       7.177       6.926       6.589    
        6.255       6.053       5.949       5.837       5.607       5.422       5.325       5.241       5.166       5.000    
  16    10.00       9.887       9.686       9.514       9.393       9.243       9.058       8.926       8.765       8.682    
        8.447       8.142       7.956       7.816       7.693       7.563       7.430       7.265       7.047       6.567    
        6.196       6.076       5.983       5.898       5.641       5.417       5.335       5.227       5.114       5.000    
  17    10.00       9.808       9.588       9.475       9.369       9.275       9.092       8.893       8.724       8.620    
        8.431       8.135       7.933       7.836       7.697       7.554       7.441       7.293       6.930       6.444    
        6.218       6.095       6.013       5.916       5.630       5.428       5.332       5.246       5.129       5.000    
  18    10.00       9.827       9.615       9.483       9.360       9.207       9.090       8.894       8.681       8.591    
        8.413       8.120       7.942       7.822       7.694       7.561       7.440       7.253       6.921       6.471    
        6.226       6.131       6.055       5.824       5.519       5.443       5.339       5.238       5.145       5.000    
  19    10.00       9.845       9.697       9.550       9.336       9.131       9.066       8.904       8.701       8.589    
        8.507       8.190       7.913       7.807       7.684       7.580       7.375       7.165       6.857       6.481    
        6.262       6.140       5.989       5.812       5.619       5.470       5.359       5.232       5.107       5.000    
  20    10.00       9.840       9.675       9.586       9.323       9.093       9.045       8.900       8.710       8.604    
        8.487       8.222       7.981       7.814       7.641       7.519       7.303       7.092       6.855       6.635    
        6.329       6.078       5.954       5.811       5.674       5.569       5.383       5.179       5.077       5.000    

 HEAD WILL BE SAVED ON UNIT 1013 AT END OF TIME STEP    1, STRESS PERIOD    1


  VOLUME BUDGET FOR ENTIRE MODEL AT END OF TIME STEP    1, STRESS PERIOD   1
  ---------------------------------------------------------------------------------------------------

     CUMULATIVE VOLUME      L**3       RATES FOR THIS TIME STEP      L**3/T          PACKAGE NAME    
     ------------------                 ------------------------                     ----------------

           IN:                                      IN:
           ---                                      ---
                 CHD =           0.9632                   CHD =           0.9632     CHD_0                            

            TOTAL IN =           0.9632              TOTAL IN =           0.9632

          OUT:                                     OUT:
          ----                                     ----
                 CHD =           0.9632                   CHD =           0.9632     CHD_0                            

           TOTAL OUT =           0.9632             TOTAL OUT =           0.9632

            IN - OUT =       1.6349E-05              IN - OUT =       1.6349E-05

 PERCENT DISCREPANCY =           0.00     PERCENT DISCREPANCY =           0.00




         TIME SUMMARY AT END OF TIME STEP    1 IN STRESS PERIOD    1
                          TIME STEP LENGTH =    1.00000    
                        STRESS PERIOD TIME =    1.00000    
                     TOTAL SIMULATION TIME =    1.00000    

end timestep

